Version 4.1
SHEET 1 1440 812
WIRE 240 -112 -288 -112
WIRE 352 -112 240 -112
WIRE 784 -112 448 -112
WIRE -288 -64 -288 -112
WIRE 176 0 144 0
WIRE 240 0 240 -112
WIRE -288 48 -288 16
WIRE 144 64 144 0
WIRE 240 64 240 0
WIRE 368 64 368 -64
WIRE -240 112 -272 112
WIRE 16 112 -160 112
WIRE 784 112 784 -112
WIRE 784 112 496 112
WIRE -272 128 -272 112
WIRE -144 160 -176 160
WIRE 16 160 -80 160
WIRE -176 208 -176 160
WIRE 16 208 -176 208
WIRE 784 208 784 192
WIRE -176 224 -176 208
WIRE -96 256 -272 256
WIRE 16 256 -16 256
WIRE 608 256 496 256
WIRE -272 272 -272 256
WIRE 608 288 608 256
WIRE 784 288 608 288
WIRE -192 304 -272 304
WIRE 16 304 -112 304
WIRE 528 304 496 304
WIRE -272 320 -272 304
WIRE 528 336 528 304
WIRE 144 416 144 352
WIRE 176 416 144 416
WIRE 240 416 240 352
WIRE 528 416 528 400
WIRE 368 480 368 352
WIRE 240 528 240 416
WIRE 240 528 -192 528
WIRE 352 528 240 528
WIRE 784 528 784 288
WIRE 784 528 448 528
WIRE -192 544 -192 528
WIRE -192 656 -192 624
FLAG -272 128 0
FLAG -176 224 0
FLAG -272 320 0
FLAG -288 48 0
FLAG -192 656 0
FLAG 528 416 0
FLAG -272 272 0
SYMBOL SpecialFunctions\\LTC4370 240 224 R0
SYMATTR InstName U1
SYMBOL voltage -288 -80 R0
WINDOW 123 0 0 Left 0
WINDOW 39 0 0 Left 0
SYMATTR InstName V1
SYMATTR Value 12
SYMBOL voltage -192 528 R0
WINDOW 123 0 0 Left 0
WINDOW 39 0 0 Left 0
SYMATTR InstName V2
SYMATTR Value 12
SYMBOL cap -80 144 R90
WINDOW 0 0 32 VBottom 2
WINDOW 3 32 32 VTop 2
SYMATTR InstName C1
SYMATTR Value 0.1µ
SYMBOL nmos 448 -64 M270
WINDOW 3 109 87 VLeft 2
SYMATTR Value SUM85N03-06P
SYMATTR InstName M1
SYMATTR Prefix X
SYMBOL nmos 448 480 R90
WINDOW 3 121 -104 VRight 2
SYMATTR Value SUM85N03-06P
SYMATTR InstName M2
SYMATTR Prefix X
SYMBOL res 0 240 R90
WINDOW 0 0 56 VBottom 2
WINDOW 3 32 56 VTop 2
SYMATTR InstName R3
SYMATTR Value 30.1k
SYMBOL res 768 96 R0
SYMATTR InstName R1
SYMATTR Value 2m
SYMBOL res 768 192 R0
SYMATTR InstName R2
SYMATTR Value 2m
SYMBOL cap 240 -16 R90
WINDOW 0 0 32 VBottom 2
WINDOW 3 32 32 VTop 2
SYMATTR InstName C2
SYMATTR Value 39n
SYMBOL cap 240 400 R90
WINDOW 0 0 32 VBottom 2
WINDOW 3 32 32 VTop 2
SYMATTR InstName C3
SYMATTR Value 39n
SYMBOL cap 512 336 R0
SYMATTR InstName C4
SYMATTR Value 0.1µ
SYMBOL res -96 288 R90
WINDOW 0 0 56 VBottom 2
WINDOW 3 32 56 VTop 2
SYMATTR InstName R4
SYMATTR Value 10k
SYMBOL res -144 96 R90
WINDOW 0 0 56 VBottom 2
WINDOW 3 32 56 VTop 2
SYMATTR InstName R5
SYMATTR Value 10k
TEXT -208 768 Left 2 !.lib C:\\Users\\Usuario\\Documents\\LTspice\\1_LTC4370_CurrentBalancingController_SUM85N03-06P_nmos\\sum85n03\\sum85n03-06P_PS.lib
TEXT -224 792 Left 2 !.tran 0 1 0 0.01
