Version 4.1
SHEET 1 2144 1896
WIRE 192 -192 -256 -192
WIRE 304 -192 192 -192
WIRE 672 -192 400 -192
WIRE -256 -128 -256 -192
WIRE 112 -32 96 -32
WIRE 192 -32 192 -192
WIRE 192 -32 176 -32
WIRE -256 -16 -256 -48
WIRE 96 32 96 -32
WIRE 192 32 192 -32
WIRE 320 32 320 -144
WIRE -304 80 -352 80
WIRE -32 80 -224 80
WIRE 672 80 672 -192
WIRE 672 80 448 80
WIRE 720 80 672 80
WIRE 848 80 800 80
WIRE 976 80 848 80
WIRE -352 128 -352 80
WIRE -144 128 -240 128
WIRE -32 128 -80 128
WIRE 576 128 448 128
WIRE 672 128 672 80
WIRE 672 128 656 128
WIRE 976 128 976 80
WIRE -240 176 -240 128
WIRE -32 176 -240 176
WIRE 496 176 448 176
WIRE 672 176 576 176
WIRE -240 192 -240 176
WIRE -464 224 -608 224
WIRE -32 224 -464 224
WIRE 672 224 672 176
WIRE 672 224 448 224
WIRE 720 224 672 224
WIRE 848 224 848 80
WIRE 848 224 800 224
WIRE 976 224 976 192
WIRE -608 256 -608 224
WIRE -464 256 -464 224
WIRE -304 272 -352 272
WIRE -32 272 -224 272
WIRE 496 272 448 272
WIRE 496 304 496 272
WIRE -352 320 -352 272
WIRE -608 368 -608 320
WIRE -464 368 -464 336
WIRE 96 368 96 320
WIRE 112 368 96 368
WIRE 192 368 192 320
WIRE 192 368 176 368
WIRE 320 512 320 320
WIRE 192 560 192 368
WIRE 192 560 -224 560
WIRE 304 560 192 560
WIRE 672 560 672 224
WIRE 672 560 400 560
WIRE -224 576 -224 560
WIRE -224 704 -224 656
FLAG -256 -16 0
FLAG -224 704 0
FLAG -352 128 0
FLAG -240 192 0
FLAG -464 368 0
FLAG -352 320 0
FLAG 976 224 0
FLAG -256 -192 Vin1
FLAG -224 560 Vin2
FLAG 496 368 0
FLAG -608 368 0
SYMBOL SpecialFunctions\\LTC4370 192 192 R0
SYMATTR InstName U1
SYMBOL voltage -256 -144 R0
WINDOW 123 0 0 Left 0
WINDOW 39 0 0 Left 0
SYMATTR InstName V1
SYMATTR Value 5
SYMBOL voltage -224 560 R0
WINDOW 123 0 0 Left 0
WINDOW 39 0 0 Left 0
SYMATTR InstName V2
SYMATTR Value 12
SYMBOL cap -80 112 R90
WINDOW 0 0 32 VBottom 2
WINDOW 3 32 32 VTop 2
SYMATTR InstName C1
SYMATTR Value 0.1µ
SYMBOL res -208 64 R90
WINDOW 0 0 56 VBottom 2
WINDOW 3 32 56 VTop 2
SYMATTR InstName R1
SYMATTR Value 10k
SYMBOL res -448 352 R180
WINDOW 0 36 76 Left 2
WINDOW 3 36 40 Left 2
SYMATTR InstName R2
SYMATTR Value 301K
SYMBOL res -208 256 R90
WINDOW 0 0 56 VBottom 2
WINDOW 3 32 56 VTop 2
SYMATTR InstName R3
SYMATTR Value 10k
SYMBOL cap 176 -48 R90
WINDOW 0 0 32 VBottom 2
WINDOW 3 32 32 VTop 2
SYMATTR InstName C2
SYMATTR Value 56µ
SYMBOL cap 176 352 R90
WINDOW 0 0 32 VBottom 2
WINDOW 3 32 32 VTop 2
SYMATTR InstName C3
SYMATTR Value 56µ
SYMBOL res 816 64 R90
WINDOW 0 0 56 VBottom 2
WINDOW 3 32 56 VTop 2
SYMATTR InstName R4
SYMATTR Value 2m
SYMBOL res 816 208 R90
WINDOW 0 0 56 VBottom 2
WINDOW 3 32 56 VTop 2
SYMATTR InstName R5
SYMATTR Value 2m
SYMBOL nmos 400 -144 M270
SYMATTR InstName M1
SYMATTR Value Si7336ADP
SYMATTR Prefix X
SYMBOL nmos 400 512 R90
SYMATTR InstName M2
SYMATTR Value Si7336ADP
SYMATTR Prefix X
SYMBOL cap 480 304 R0
SYMATTR InstName C4
SYMATTR Value 100µF
SYMBOL res 672 112 R90
WINDOW 0 0 56 VBottom 2
WINDOW 3 32 56 VTop 2
SYMATTR InstName R7
SYMATTR Value 100k
SYMBOL res 592 160 R90
WINDOW 0 0 56 VBottom 2
WINDOW 3 32 56 VTop 2
SYMATTR InstName R8
SYMATTR Value 100k
SYMBOL cap 960 128 R0
SYMATTR InstName C5
SYMATTR Value 100µ
SYMBOL cap -624 256 R0
SYMATTR InstName C6
SYMATTR Value 1p
TEXT -48 760 Left 2 !.tran 10
TEXT -232 864 Left 2 !.lib C:\\Users\\Usuario\\Documents\\LTspice\\5_LTC4370_CurrentBalancing_Si7336ADP_ThirdParty\\Si7336ADP_HS.txt
TEXT 1192 304 Left 2 ;- Se cambió el uso del archivo Si7336ADP_PS.txt al Si7336ADP_PS.txt\n- Los valores de capacitancia en CPO1, CP02 y COMP se estiman según\nsegún las recomendaciones del fabricante. \n- La primera vez que funcionó la simulación los valores de Vin1 = 5V y Vin2 = 12V
