Version 4.1
SHEET 1 1912 752
WIRE 176 -208 -112 -208
WIRE 272 -208 176 -208
WIRE 384 -208 272 -208
WIRE 768 -208 480 -208
WIRE 176 -160 176 -208
WIRE -112 -80 -112 -208
WIRE 176 0 176 -96
WIRE 272 0 272 -208
WIRE 400 0 400 -160
WIRE -112 16 -112 0
WIRE 48 48 16 48
WIRE 768 48 768 -208
WIRE 768 48 528 48
WIRE 16 64 16 48
WIRE -80 96 -128 96
WIRE 48 96 -16 96
WIRE 992 128 768 128
WIRE -128 144 -128 96
WIRE 48 144 -128 144
WIRE 992 144 992 128
WIRE -128 160 -128 144
WIRE -96 192 -128 192
WIRE 48 192 -16 192
WIRE 640 192 528 192
WIRE 640 224 640 192
WIRE 768 224 768 208
WIRE 768 224 640 224
WIRE -128 240 -128 192
WIRE 48 240 -128 240
WIRE 608 240 528 240
WIRE -128 256 -128 240
WIRE 608 256 608 240
WIRE 992 272 992 224
WIRE 176 352 176 288
WIRE 608 352 608 320
WIRE 400 416 400 288
WIRE 176 464 176 416
WIRE 176 464 -112 464
WIRE 272 464 272 288
WIRE 272 464 176 464
WIRE 384 464 272 464
WIRE 768 464 768 224
WIRE 768 464 480 464
WIRE -112 480 -112 464
WIRE -112 592 -112 560
FLAG -112 16 0
FLAG -112 592 0
FLAG 16 64 0
FLAG -128 160 0
FLAG -128 256 0
FLAG 608 352 0
FLAG 992 272 0
SYMBOL SpecialFunctions\\LTC4370 272 160 R0
SYMATTR InstName U1
SYMBOL voltage -112 -96 R0
WINDOW 123 0 0 Left 0
WINDOW 39 0 0 Left 0
SYMATTR InstName V1
SYMATTR Value PULSE(3.3 5 0 100m 100m 5 10)
SYMBOL voltage -112 464 R0
WINDOW 123 0 0 Left 0
WINDOW 39 0 0 Left 0
SYMATTR InstName V2
SYMATTR Value PULSE(5 7 0 100m 100m 5 10)
SYMBOL cap 192 -96 R180
WINDOW 0 24 56 Left 2
WINDOW 3 24 8 Left 2
SYMATTR InstName C1
SYMATTR Value 12n
SYMBOL cap -16 80 R90
WINDOW 0 0 32 VBottom 2
WINDOW 3 32 32 VTop 2
SYMATTR InstName C2
SYMATTR Value 0.1µ
SYMBOL cap 192 416 R180
WINDOW 0 24 56 Left 2
WINDOW 3 24 8 Left 2
SYMATTR InstName C3
SYMATTR Value 12n
SYMBOL cap 624 320 R180
WINDOW 0 24 56 Left 2
WINDOW 3 24 8 Left 2
SYMATTR InstName C4
SYMATTR Value 39n
SYMBOL res 0 176 R90
WINDOW 0 0 56 VBottom 2
WINDOW 3 32 56 VTop 2
SYMATTR InstName R1
SYMATTR Value 60k
SYMBOL res 784 144 R180
WINDOW 0 36 76 Left 2
WINDOW 3 36 40 Left 2
SYMATTR InstName R2
SYMATTR Value 2m
SYMBOL res 784 224 R180
WINDOW 0 36 76 Left 2
WINDOW 3 36 40 Left 2
SYMATTR InstName R3
SYMATTR Value 2m
SYMBOL nmos 480 -160 M270
SYMATTR InstName M1
SYMATTR Value Si2342DS
SYMATTR Prefix X
SYMBOL nmos 480 416 R90
SYMATTR InstName M2
SYMATTR Value Si2342DS
SYMATTR Prefix X
SYMBOL res 976 128 R0
SYMATTR InstName R4
SYMATTR Value 120
TEXT -120 712 Left 2 !.lib C:\\Users\\Usuario\\Documents\\LTspice\\1_LTC4370_Simulations\\2_LTC4370_CurrentBalancingController_Si2342DS_nmos\\si2342ds_ps_revb\\Si2342DS_PS_RC_Rev_B.lib
TEXT -144 736 Left 2 !.tran 10
