Version 4.1
SHEET 1 948 1896
WIRE 208 928 -240 928
WIRE 320 928 208 928
WIRE 688 928 416 928
WIRE -240 992 -240 928
WIRE 128 1088 112 1088
WIRE 208 1088 208 928
WIRE 208 1088 192 1088
WIRE -240 1104 -240 1072
WIRE 112 1152 112 1088
WIRE 208 1152 208 1088
WIRE 336 1152 336 976
WIRE -288 1200 -336 1200
WIRE -16 1200 -208 1200
WIRE 688 1200 688 928
WIRE 688 1200 464 1200
WIRE 688 1216 688 1200
WIRE -336 1248 -336 1200
WIRE -128 1248 -224 1248
WIRE -16 1248 -64 1248
WIRE -224 1296 -224 1248
WIRE -16 1296 -224 1296
WIRE 880 1296 688 1296
WIRE -224 1312 -224 1296
WIRE 880 1312 880 1296
WIRE -144 1344 -336 1344
WIRE -16 1344 -64 1344
WIRE 576 1344 464 1344
WIRE -336 1360 -336 1344
WIRE -288 1392 -336 1392
WIRE -16 1392 -208 1392
WIRE 544 1392 464 1392
WIRE 576 1392 576 1344
WIRE 688 1392 688 1376
WIRE 688 1392 576 1392
WIRE 544 1424 544 1392
WIRE -336 1440 -336 1392
WIRE 880 1440 880 1392
WIRE 112 1488 112 1440
WIRE 128 1488 112 1488
WIRE 208 1488 208 1440
WIRE 208 1488 192 1488
WIRE 544 1536 544 1488
WIRE 336 1632 336 1440
WIRE 208 1680 208 1488
WIRE 208 1680 -208 1680
WIRE 320 1680 208 1680
WIRE 688 1680 688 1392
WIRE 688 1680 416 1680
WIRE -208 1696 -208 1680
WIRE -208 1824 -208 1776
FLAG 544 1536 0
FLAG -240 1104 0
FLAG -208 1824 0
FLAG -336 1248 0
FLAG -224 1312 0
FLAG -336 1360 0
FLAG -336 1440 0
FLAG 880 1440 0
FLAG 880 1296 Vout
FLAG -240 928 Vin1
FLAG -208 1680 Vin2
SYMBOL SpecialFunctions\\LTC4370 208 1312 R0
SYMATTR InstName U2
SYMBOL voltage -240 976 R0
WINDOW 123 0 0 Left 0
WINDOW 39 0 0 Left 0
SYMATTR InstName V3
SYMATTR Value 12
SYMBOL voltage -208 1680 R0
WINDOW 123 0 0 Left 0
WINDOW 39 0 0 Left 0
SYMATTR InstName V4
SYMATTR Value 12
SYMBOL cap -64 1232 R90
WINDOW 0 0 32 VBottom 2
WINDOW 3 32 32 VTop 2
SYMATTR InstName C5
SYMATTR Value 0.1µ
SYMBOL res -192 1184 R90
WINDOW 0 0 56 VBottom 2
WINDOW 3 32 56 VTop 2
SYMATTR InstName R7
SYMATTR Value 10k
SYMBOL res -48 1328 R90
WINDOW 0 0 56 VBottom 2
WINDOW 3 32 56 VTop 2
SYMATTR InstName R8
SYMATTR Value 30.1k
SYMBOL res -192 1376 R90
WINDOW 0 0 56 VBottom 2
WINDOW 3 32 56 VTop 2
SYMATTR InstName R9
SYMATTR Value 10k
SYMBOL cap 192 1072 R90
WINDOW 0 0 32 VBottom 2
WINDOW 3 32 32 VTop 2
SYMATTR InstName C6
SYMATTR Value 39n
SYMBOL cap 192 1472 R90
WINDOW 0 0 32 VBottom 2
WINDOW 3 32 32 VTop 2
SYMATTR InstName C7
SYMATTR Value 39n
SYMBOL cap 560 1488 R180
WINDOW 0 24 56 Left 2
WINDOW 3 24 8 Left 2
SYMATTR InstName C8
SYMATTR Value 0.1µ
SYMBOL res 672 1200 R0
SYMATTR InstName R10
SYMATTR Value 2m
SYMBOL res 672 1280 R0
SYMATTR InstName R11
SYMATTR Value 2m
SYMBOL res 864 1296 R0
SYMATTR InstName R12
SYMATTR Value 120
SYMBOL nmos 416 976 M270
SYMATTR InstName M3
SYMBOL nmos 416 1632 R90
SYMATTR InstName M4
TEXT -32 1880 Left 2 !.tran 0 1 0 .01
